<?xml version="1.0" encoding="UTF-8"?>

<!-- generated on 2022-08-15 15:31:06 by Eclipse SUMO netedit Version 1.13.0
<configuration xmlns:xsi="http://www.w3.org/2001/XMLSchema-instance" xsi:noNamespaceSchemaLocation="http://sumo.dlr.de/xsd/netconvertConfiguration.xsd">

    <input>
        <sumo-net-file value="C:\Users\mciti\Documents\Projects\ide3a\SUMO\test\straight.net.xml"/>
    </input>

    <output>
        <output-file value="C:\Users\mciti\Documents\Projects\ide3a\SUMO\test\straight.net.xml"/>
    </output>

    <processing>
        <geometry.min-radius.fix.railways value="false"/>
        <geometry.max-grade.fix value="false"/>
        <offset.disable-normalization value="true"/>
        <lefthand value="false"/>
    </processing>

    <junctions>
        <no-internal-links value="true"/>
        <no-turnarounds value="true"/>
        <junctions.corner-detail value="5"/>
        <junctions.limit-turn-speed value="5.5"/>
        <rectangular-lane-cut value="false"/>
    </junctions>

    <pedestrian>
        <walkingareas value="false"/>
    </pedestrian>

    <report>
        <aggregate-warnings value="5"/>
    </report>

</configuration>
-->

<net version="1.9" junctionCornerDetail="5" limitTurnSpeed="5.50" xmlns:xsi="http://www.w3.org/2001/XMLSchema-instance" xsi:noNamespaceSchemaLocation="http://sumo.dlr.de/xsd/net_file.xsd">

    <location netOffset="0.00,0.00" convBoundary="-500.00,900.00,500.00,1400.00" origBoundary="-10000000000.00,-10000000000.00,10000000000.00,10000000000.00" projParameter="!"/>

    <edge id="-E0" from="911" to="91" priority="-1">
        <lane id="-E0_0" index="0" speed="13.89" length="500.00" shape="-13.60,1008.00 -500.00,1008.00"/>
        <lane id="-E0_1" index="1" speed="13.89" length="500.00" shape="-13.60,1004.80 -500.00,1004.80"/>
        <lane id="-E0_2" index="2" speed="13.89" length="500.00" shape="-13.60,1001.60 -500.00,1001.60"/>
    </edge>
    <edge id="-E12" from="J0" to="911" priority="-1">
        <lane id="-E12_0" index="0" speed="13.89" length="300.00" shape="-8.00,1286.40 -8.00,1013.60"/>
        <lane id="-E12_1" index="1" speed="13.89" length="300.00" shape="-4.80,1286.40 -4.80,1013.60"/>
        <lane id="-E12_2" index="2" speed="13.89" length="300.00" shape="-1.60,1286.40 -1.60,1013.60"/>
    </edge>
    <edge id="-E2" from="J1" to="911" priority="-1" length="100.00">
        <lane id="-E2_0" index="0" speed="13.89" length="100.00" shape="8.00,900.00 8.00,986.40"/>
        <lane id="-E2_1" index="1" speed="13.89" length="100.00" shape="4.80,900.00 4.80,986.40"/>
        <lane id="-E2_2" index="2" speed="13.89" length="100.00" shape="1.60,900.00 1.60,986.40"/>
    </edge>
    <edge id="-E3" from="J2" to="911" priority="-1" length="100.00">
        <lane id="-E3_0" index="0" speed="13.89" length="100.00" shape="100.00,1008.00 13.60,1008.00"/>
        <lane id="-E3_1" index="1" speed="13.89" length="100.00" shape="100.00,1004.80 13.60,1004.80"/>
        <lane id="-E3_2" index="2" speed="13.89" length="100.00" shape="100.00,1001.60 13.60,1001.60"/>
    </edge>
    <edge id="-E4" from="J3" to="J0" priority="-1">
        <lane id="-E4_0" index="0" speed="13.89" length="200.00" shape="196.00,1308.00 13.60,1308.00"/>
        <lane id="-E4_1" index="1" speed="13.89" length="200.00" shape="196.00,1304.80 13.60,1304.80"/>
        <lane id="-E4_2" index="2" speed="13.89" length="200.00" shape="196.00,1301.60 13.60,1301.60"/>
    </edge>
    <edge id="-E5" from="J4" to="J0" priority="-1">
        <lane id="-E5_0" index="0" speed="13.89" length="100.00" shape="-100.00,1292.00 -13.60,1292.00"/>
        <lane id="-E5_1" index="1" speed="13.89" length="100.00" shape="-100.00,1295.20 -13.60,1295.20"/>
        <lane id="-E5_2" index="2" speed="13.89" length="100.00" shape="-100.00,1298.40 -13.60,1298.40"/>
    </edge>
    <edge id="-E6" from="J5" to="J0" priority="-1">
        <lane id="-E6_0" index="0" speed="13.89" length="100.00" shape="-8.00,1400.00 -8.00,1313.60"/>
        <lane id="-E6_1" index="1" speed="13.89" length="100.00" shape="-4.80,1400.00 -4.80,1313.60"/>
        <lane id="-E6_2" index="2" speed="13.89" length="100.00" shape="-1.60,1400.00 -1.60,1313.60"/>
    </edge>
    <edge id="-E7" from="J6" to="J3" priority="-1">
        <lane id="-E7_0" index="0" speed="13.89" length="300.00" shape="500.00,1304.80 204.00,1304.80"/>
        <lane id="-E7_1" index="1" speed="13.89" length="300.00" shape="500.00,1301.60 204.00,1301.60"/>
    </edge>
    <edge id="E0" from="91" to="911" priority="-1">
        <lane id="E0_0" index="0" speed="13.89" length="500.00" shape="-500.00,992.00 -13.60,992.00"/>
        <lane id="E0_1" index="1" speed="13.89" length="500.00" shape="-500.00,995.20 -13.60,995.20"/>
        <lane id="E0_2" index="2" speed="13.89" length="500.00" shape="-500.00,998.40 -13.60,998.40"/>
    </edge>
    <edge id="E12" from="911" to="J0" priority="-1">
        <lane id="E12_0" index="0" speed="2.78" length="300.00" shape="8.00,1013.60 8.00,1286.40"/>
        <lane id="E12_1" index="1" speed="2.78" length="300.00" shape="4.80,1013.60 4.80,1286.40"/>
        <lane id="E12_2" index="2" speed="2.78" length="300.00" shape="1.60,1013.60 1.60,1286.40"/>
    </edge>
    <edge id="E2" from="911" to="J1" priority="-1" length="100.00">
        <lane id="E2_0" index="0" speed="13.89" length="100.00" shape="-8.00,986.40 -8.00,900.00"/>
        <lane id="E2_1" index="1" speed="13.89" length="100.00" shape="-4.80,986.40 -4.80,900.00"/>
        <lane id="E2_2" index="2" speed="13.89" length="100.00" shape="-1.60,986.40 -1.60,900.00"/>
    </edge>
    <edge id="E3" from="911" to="J2" priority="-1" length="100.00">
        <lane id="E3_0" index="0" speed="13.89" length="100.00" shape="13.60,992.00 100.00,992.00"/>
        <lane id="E3_1" index="1" speed="13.89" length="100.00" shape="13.60,995.20 100.00,995.20"/>
        <lane id="E3_2" index="2" speed="13.89" length="100.00" shape="13.60,998.40 100.00,998.40"/>
    </edge>
    <edge id="E4" from="J0" to="J3" priority="-1">
        <lane id="E4_0" index="0" speed="13.89" length="200.00" shape="13.60,1292.00 196.00,1292.00"/>
        <lane id="E4_1" index="1" speed="13.89" length="200.00" shape="13.60,1295.20 196.00,1295.20"/>
        <lane id="E4_2" index="2" speed="13.89" length="200.00" shape="13.60,1298.40 196.00,1298.40"/>
    </edge>
    <edge id="E5" from="J0" to="J4" priority="-1">
        <lane id="E5_0" index="0" speed="13.89" length="100.00" shape="-13.60,1308.00 -100.00,1308.00"/>
        <lane id="E5_1" index="1" speed="13.89" length="100.00" shape="-13.60,1304.80 -100.00,1304.80"/>
        <lane id="E5_2" index="2" speed="13.89" length="100.00" shape="-13.60,1301.60 -100.00,1301.60"/>
    </edge>
    <edge id="E6" from="J0" to="J5" priority="-1">
        <lane id="E6_0" index="0" speed="13.89" length="100.00" shape="8.00,1313.60 8.00,1400.00"/>
        <lane id="E6_1" index="1" speed="13.89" length="100.00" shape="4.80,1313.60 4.80,1400.00"/>
        <lane id="E6_2" index="2" speed="13.89" length="100.00" shape="1.60,1313.60 1.60,1400.00"/>
    </edge>
    <edge id="E7" from="J3" to="J6" priority="-1">
        <lane id="E7_0" index="0" speed="13.89" length="300.00" shape="204.00,1295.20 500.00,1295.20"/>
        <lane id="E7_1" index="1" speed="13.89" length="300.00" shape="204.00,1298.40 500.00,1298.40"/>
    </edge>

    <junction id="91" type="dead_end" x="-500.00" y="1000.00" incLanes="-E0_0 -E0_1 -E0_2" intLanes="" shape="-500.00,1000.00 -500.00,1009.60 -500.00,1000.00"/>
    <junction id="911" type="priority" x="0.00" y="1000.00" incLanes="-E12_0 -E12_1 -E12_2 -E3_0 -E3_1 -E3_2 -E2_0 -E2_1 -E2_2 E0_0 E0_1 E0_2" intLanes="" shape="-9.60,1013.60 9.60,1013.60 10.04,1011.38 10.60,1010.60 11.38,1010.04 12.38,1009.71 13.60,1009.60 13.60,990.40 11.38,989.96 10.60,989.40 10.04,988.62 9.71,987.62 9.60,986.40 -9.60,986.40 -10.04,988.62 -10.60,989.40 -11.38,989.96 -12.38,990.29 -13.60,990.40 -13.60,1009.60 -11.38,1010.04 -10.60,1010.60 -10.04,1011.38 -9.71,1012.38">
        <request index="0"  response="00000000000000000000" foes="00000000000000000000"/>
        <request index="1"  response="00000000000000000000" foes="11111100001111000000"/>
        <request index="2"  response="00000000000000000000" foes="11111100001111000000"/>
        <request index="3"  response="00000000000000000000" foes="11111100001111000000"/>
        <request index="4"  response="00000011000000000000" foes="11110011001111000000"/>
        <request index="5"  response="00000000000000000000" foes="00000000000000000000"/>
        <request index="6"  response="00000111000000011110" foes="10000111000000011110"/>
        <request index="7"  response="00000111000000011110" foes="10000111000000011110"/>
        <request index="8"  response="01110111000000011110" foes="01110111000000011110"/>
        <request index="9"  response="01110111000000011110" foes="01110111000000011110"/>
        <request index="10" response="00000000000000000000" foes="01110000000000000000"/>
        <request index="11" response="00000000000000000000" foes="01110000000000000000"/>
        <request index="12" response="00000000000000000000" foes="11110000001111010000"/>
        <request index="13" response="00000000000000000000" foes="11110000001111010000"/>
        <request index="14" response="00000000000000001110" foes="11110000001111001110"/>
        <request index="15" response="00000000000000001110" foes="00000000000000001110"/>
        <request index="16" response="00000111110000011110" foes="00000111111100011110"/>
        <request index="17" response="00000111110000011110" foes="00000111111100011110"/>
        <request index="18" response="00000111110000011110" foes="00000111111100011110"/>
        <request index="19" response="00000111000011011110" foes="00000111000011011110"/>
    </junction>
    <junction id="J0" type="priority" x="0.00" y="1300.00" incLanes="-E6_0 -E6_1 -E6_2 -E4_0 -E4_1 -E4_2 E12_0 E12_1 E12_2 -E5_0 -E5_1 -E5_2" intLanes="" shape="-9.60,1313.60 9.60,1313.60 10.04,1311.38 10.60,1310.60 11.38,1310.04 12.38,1309.71 13.60,1309.60 13.60,1290.40 11.38,1289.96 10.60,1289.40 10.04,1288.62 9.71,1287.62 9.60,1286.40 -9.60,1286.40 -10.04,1288.62 -10.60,1289.40 -11.38,1289.96 -12.38,1290.29 -13.60,1290.40 -13.60,1309.60 -11.38,1310.04 -10.60,1310.60 -10.04,1311.38 -9.71,1312.38">
        <request index="0"  response="00000000000111000000" foes="00000000000111000000"/>
        <request index="1"  response="11111000001111000000" foes="11111100001111000000"/>
        <request index="2"  response="11111000001111000000" foes="11111100001111000000"/>
        <request index="3"  response="11111000001111000000" foes="11111100001111000000"/>
        <request index="4"  response="11110011101111000000" foes="11110011101111000000"/>
        <request index="5"  response="00000000000000000000" foes="00000011100000000000"/>
        <request index="6"  response="00000000000000000000" foes="10000111100000011111"/>
        <request index="7"  response="00000000000000000000" foes="10000111100000011111"/>
        <request index="8"  response="00000000000000000000" foes="10000111100000011111"/>
        <request index="9"  response="01110000000000000000" foes="01110111100000011110"/>
        <request index="10" response="01110000000000000000" foes="01110000000000000000"/>
        <request index="11" response="11110000001111100000" foes="11110000001111110000"/>
        <request index="12" response="11110000001111100000" foes="11110000001111110000"/>
        <request index="13" response="11110000001111100000" foes="11110000001111110000"/>
        <request index="14" response="11110000001111001110" foes="11110000001111001110"/>
        <request index="15" response="00000000000000000000" foes="00000000000000001110"/>
        <request index="16" response="00000000000000000000" foes="00000111111000011110"/>
        <request index="17" response="00000000000000000000" foes="00000111111000011110"/>
        <request index="18" response="00000000000000000000" foes="00000111111000011110"/>
        <request index="19" response="00000000000111000000" foes="00000111100111011110"/>
    </junction>
    <junction id="J1" type="dead_end" x="0.00" y="900.00" incLanes="E2_0 E2_1 E2_2" intLanes="" shape="0.00,900.00 -9.60,900.00 0.00,900.00"/>
    <junction id="J2" type="dead_end" x="100.00" y="1000.00" incLanes="E3_0 E3_1 E3_2" intLanes="" shape="100.00,1000.00 100.00,990.40 100.00,1000.00"/>
    <junction id="J3" type="priority" x="200.00" y="1300.00" incLanes="-E7_0 -E7_1 E4_0 E4_1 E4_2" intLanes="" shape="204.00,1306.40 204.00,1293.60 200.97,1292.77 199.03,1291.23 197.79,1290.64 196.00,1290.40 196.00,1309.60 199.03,1308.77 200.97,1307.23 202.21,1306.64">
        <request index="0" response="00000" foes="00000"/>
        <request index="1" response="00000" foes="00000"/>
        <request index="2" response="00000" foes="00000"/>
        <request index="3" response="00000" foes="00000"/>
        <request index="4" response="00000" foes="00000"/>
    </junction>
    <junction id="J4" type="dead_end" x="-100.00" y="1300.00" incLanes="E5_0 E5_1 E5_2" intLanes="" shape="-100.00,1300.00 -100.00,1309.60 -100.00,1300.00"/>
    <junction id="J5" type="dead_end" x="0.00" y="1400.00" incLanes="E6_0 E6_1 E6_2" intLanes="" shape="0.00,1400.00 9.60,1400.00 0.00,1400.00"/>
    <junction id="J6" type="dead_end" x="500.00" y="1300.00" incLanes="E7_0 E7_1" intLanes="" shape="500.00,1300.00 500.00,1293.60 500.00,1300.00"/>

    <connection from="-E12" to="-E0" fromLane="0" toLane="0" dir="r" state="M"/>
    <connection from="-E12" to="E2" fromLane="0" toLane="0" dir="s" state="M"/>
    <connection from="-E12" to="E2" fromLane="1" toLane="1" dir="s" state="M"/>
    <connection from="-E12" to="E2" fromLane="2" toLane="2" dir="s" state="M"/>
    <connection from="-E12" to="E3" fromLane="2" toLane="2" dir="l" state="m"/>
    <connection from="-E2" to="E3" fromLane="0" toLane="0" dir="r" state="M"/>
    <connection from="-E2" to="E3" fromLane="1" toLane="1" dir="r" state="M"/>
    <connection from="-E2" to="E12" fromLane="1" toLane="1" dir="s" state="M"/>
    <connection from="-E2" to="E12" fromLane="2" toLane="2" dir="s" state="M"/>
    <connection from="-E2" to="-E0" fromLane="2" toLane="2" dir="l" state="m"/>
    <connection from="-E3" to="E12" fromLane="0" toLane="0" dir="r" state="M"/>
    <connection from="-E3" to="-E0" fromLane="0" toLane="1" dir="s" state="m"/>
    <connection from="-E3" to="-E0" fromLane="1" toLane="2" dir="s" state="m"/>
    <connection from="-E3" to="E2" fromLane="1" toLane="1" dir="l" state="m"/>
    <connection from="-E3" to="E2" fromLane="2" toLane="2" dir="l" state="m"/>
    <connection from="-E4" to="E6" fromLane="0" toLane="0" dir="r" state="M"/>
    <connection from="-E4" to="E5" fromLane="0" toLane="0" dir="s" state="M"/>
    <connection from="-E4" to="E5" fromLane="1" toLane="1" dir="s" state="M"/>
    <connection from="-E4" to="E5" fromLane="2" toLane="2" dir="s" state="M"/>
    <connection from="-E4" to="-E12" fromLane="2" toLane="2" dir="l" state="m"/>
    <connection from="-E5" to="-E12" fromLane="0" toLane="0" dir="r" state="M"/>
    <connection from="-E5" to="E4" fromLane="0" toLane="0" dir="s" state="M"/>
    <connection from="-E5" to="E4" fromLane="1" toLane="1" dir="s" state="M"/>
    <connection from="-E5" to="E4" fromLane="2" toLane="2" dir="s" state="M"/>
    <connection from="-E5" to="E6" fromLane="2" toLane="2" dir="l" state="m"/>
    <connection from="-E6" to="E5" fromLane="0" toLane="0" dir="r" state="m"/>
    <connection from="-E6" to="-E12" fromLane="0" toLane="0" dir="s" state="m"/>
    <connection from="-E6" to="-E12" fromLane="1" toLane="1" dir="s" state="m"/>
    <connection from="-E6" to="-E12" fromLane="2" toLane="2" dir="s" state="m"/>
    <connection from="-E6" to="E4" fromLane="2" toLane="2" dir="l" state="m"/>
    <connection from="-E7" to="-E4" fromLane="0" toLane="0" dir="s" state="M"/>
    <connection from="-E7" to="-E4" fromLane="1" toLane="1" dir="s" state="M"/>
    <connection from="-E7" to="-E4" fromLane="1" toLane="2" dir="s" state="M"/>
    <connection from="E0" to="E2" fromLane="0" toLane="0" dir="r" state="m"/>
    <connection from="E0" to="E3" fromLane="0" toLane="0" dir="s" state="m"/>
    <connection from="E0" to="E3" fromLane="1" toLane="1" dir="s" state="m"/>
    <connection from="E0" to="E3" fromLane="2" toLane="2" dir="s" state="m"/>
    <connection from="E0" to="E12" fromLane="2" toLane="2" dir="l" state="m"/>
    <connection from="E12" to="E4" fromLane="0" toLane="0" dir="r" state="m"/>
    <connection from="E12" to="E6" fromLane="0" toLane="0" dir="s" state="m"/>
    <connection from="E12" to="E6" fromLane="1" toLane="1" dir="s" state="m"/>
    <connection from="E12" to="E6" fromLane="2" toLane="2" dir="s" state="m"/>
    <connection from="E12" to="E5" fromLane="2" toLane="2" dir="l" state="m"/>
    <connection from="E4" to="E7" fromLane="0" toLane="0" dir="s" state="M"/>
    <connection from="E4" to="E7" fromLane="1" toLane="1" dir="s" state="M"/>

</net>
