<?xml version="1.0" encoding="UTF-8"?>

<!-- generated via generate_routefile() in run.py -->

<routes xmlns:xsi="http://www.w3.org/2001/XMLSchema-instance" xsi:noNamespaceSchemaLocation="http://sumo.dlr.de/xsd/routes_file.xsd">
    <!-- Vehicles, persons and containers (sorted by depart) -->
    <flow id="f_0" begin="0.00" departLane="1" departPos="10.00" from="E0" to="E0" end="3600.00" vehsPerHour="1.00"/>
</routes>

