<?xml version="1.0" encoding="UTF-8"?>

<!-- generated on 2022-08-10 18:39:37 by Eclipse SUMO netedit Version 1.13.0
-->

<routes xmlns:xsi="http://www.w3.org/2001/XMLSchema-instance" xsi:noNamespaceSchemaLocation="http://sumo.dlr.de/xsd/routes_file.xsd">
    <!-- Vehicles, persons and containers (sorted by depart) -->
    <flow id="f_0" begin="0.00" departLane="1" departPos="10.00" from="E0" to="E0" end="3600.00" vehsPerHour="1800.00"/>
</routes>
