<?xml version="1.0" encoding="UTF-8"?>

<!-- generated on 2022-08-10 18:30:43 by Eclipse SUMO netedit Version 1.13.0
<configuration xmlns:xsi="http://www.w3.org/2001/XMLSchema-instance" xsi:noNamespaceSchemaLocation="http://sumo.dlr.de/xsd/netconvertConfiguration.xsd">

    <output>
        <output-file value="C:\Users\mciti\Documents\Projects\ide3a\SUMO\test\straight.net.xml"/>
    </output>

    <processing>
        <offset.disable-normalization value="true"/>
    </processing>

    <junctions>
        <no-turnarounds value="true"/>
    </junctions>

    <report>
        <aggregate-warnings value="5"/>
    </report>

</configuration>
-->

<net version="1.9" junctionCornerDetail="5" limitTurnSpeed="5.50" xmlns:xsi="http://www.w3.org/2001/XMLSchema-instance" xsi:noNamespaceSchemaLocation="http://sumo.dlr.de/xsd/net_file.xsd">

    <location netOffset="0.00,0.00" convBoundary="-1000.00,1000.00,0.00,1000.00" origBoundary="10000000000.00,10000000000.00,-10000000000.00,-10000000000.00" projParameter="!"/>

    <edge id="-E0" from="911" to="91" priority="-1">
        <lane id="-E0_0" index="0" speed="13.89" length="1000.00" shape="0.00,1008.00 -1000.00,1008.00"/>
        <lane id="-E0_1" index="1" speed="13.89" length="1000.00" shape="0.00,1004.80 -1000.00,1004.80"/>
        <lane id="-E0_2" index="2" speed="13.89" length="1000.00" shape="0.00,1001.60 -1000.00,1001.60"/>
    </edge>
    <edge id="E0" from="91" to="911" priority="-1">
        <lane id="E0_0" index="0" speed="13.89" length="1000.00" shape="-1000.00,992.00 0.00,992.00"/>
        <lane id="E0_1" index="1" speed="13.89" length="1000.00" shape="-1000.00,995.20 0.00,995.20"/>
        <lane id="E0_2" index="2" speed="13.89" length="1000.00" shape="-1000.00,998.40 0.00,998.40"/>
    </edge>

    <junction id="91" type="dead_end" x="-1000.00" y="1000.00" incLanes="-E0_0 -E0_1 -E0_2" intLanes="" shape="-1000.00,1000.00 -1000.00,1009.60 -1000.00,1000.00"/>
    <junction id="911" type="dead_end" x="0.00" y="1000.00" incLanes="E0_0 E0_1 E0_2" intLanes="" shape="0.00,1000.00 0.00,990.40 0.00,1000.00"/>

</net>
